14
ETOAC
C             0.002  -0.004   0.002  
C             0.812  -1.815   1.323  
O             0.704  -0.485   1.178  
C            -0.019   1.526   0.010  
C             1.527  -2.388   2.519  
O             0.335  -2.553   0.493  
H            -1.020  -0.381   0.010  
H             0.512  -0.356  -0.895  
H             0.815  -2.541   3.329  
H             1.981  -3.342   2.248  
H             2.304  -1.696   2.843  
H             1.004   1.903   0.003  
H            -0.546   1.887  -0.873  
H            -0.529   1.877   0.907  
